<?xml version="1.0" encoding="UTF-8"?>

<!-- generated on 2023-11-09 00:54:03 by Eclipse SUMO netedit Version 1.15.0
<configuration xmlns:xsi="http://www.w3.org/2001/XMLSchema-instance" xsi:noNamespaceSchemaLocation="http://sumo.dlr.de/xsd/netconvertConfiguration.xsd">

    <input>
        <sumo-net-file value="C:\Users\User\Desktop\v2x\sumo\highway_nomal\DCC_test__nomal.net.xml"/>
    </input>

    <output>
        <output-file value="C:\Users\User\Desktop\v2x\sumo\highway_nomal\DCC_test__nomal.net.xml"/>
    </output>

    <processing>
        <geometry.min-radius.fix.railways value="false"/>
        <geometry.max-grade.fix value="false"/>
        <offset.disable-normalization value="true"/>
        <lefthand value="0"/>
    </processing>

    <junctions>
        <no-turnarounds value="true"/>
        <junctions.corner-detail value="5"/>
        <junctions.limit-turn-speed value="5.50"/>
        <rectangular-lane-cut value="0"/>
    </junctions>

    <pedestrian>
        <walkingareas value="0"/>
    </pedestrian>

</configuration>
-->

<net version="1.9" junctionCornerDetail="5" limitTurnSpeed="5.50" xmlns:xsi="http://www.w3.org/2001/XMLSchema-instance" xsi:noNamespaceSchemaLocation="http://sumo.dlr.de/xsd/net_file.xsd">

    <location netOffset="0.00,0.00" convBoundary="0.00,0.00,2000.00,0.00" origBoundary="-10000000000.00,-10000000000.00,10000000000.00,10000000000.00" projParameter="!"/>

    <edge id=":J1_0" function="internal">
        <lane id=":J1_0_0" index="0" speed="50.24" length="17.52" width="4.00" shape="0.00,10.00 -4.50,7.00 -6.00,4.00 -4.50,1.00 0.00,-2.00"/>
        <lane id=":J1_0_1" index="1" speed="50.24" length="17.52" width="4.00" shape="0.00,6.00 -4.50,3.00 -6.00,0.00 -4.50,-3.00 0.00,-6.00"/>
        <lane id=":J1_0_2" index="2" speed="50.24" length="17.52" width="4.00" shape="0.00,2.00 -4.50,-1.00 -6.00,-4.00 -4.50,-7.00 0.00,-10.00"/>
    </edge>
    <edge id=":J2_0" function="internal">
        <lane id=":J2_0_0" index="0" speed="70.00" length="0.10" width="4.00" shape="1000.00,10.00 1000.00,10.00"/>
        <lane id=":J2_0_1" index="1" speed="70.00" length="0.10" width="4.00" shape="1000.00,6.00 1000.00,6.00"/>
        <lane id=":J2_0_2" index="2" speed="70.00" length="0.10" width="4.00" shape="1000.00,2.00 1000.00,2.00"/>
    </edge>
    <edge id=":J2_3" function="internal">
        <lane id=":J2_3_0" index="0" speed="70.00" length="0.10" width="4.00" shape="1000.00,-10.00 1000.00,-10.00"/>
        <lane id=":J2_3_1" index="1" speed="70.00" length="0.10" width="4.00" shape="1000.00,-6.00 1000.00,-6.00"/>
        <lane id=":J2_3_2" index="2" speed="70.00" length="0.10" width="4.00" shape="1000.00,-2.00 1000.00,-2.00"/>
    </edge>
    <edge id=":J3_0" function="internal">
        <lane id=":J3_0_0" index="0" speed="50.24" length="17.52" width="4.00" shape="2000.00,-10.00 2004.50,-7.00 2006.00,-4.00 2004.50,-1.00 2000.00,2.00"/>
        <lane id=":J3_0_1" index="1" speed="50.24" length="17.52" width="4.00" shape="2000.00,-6.00 2004.50,-3.00 2006.00,0.00 2004.50,3.00 2000.00,6.00"/>
        <lane id=":J3_0_2" index="2" speed="50.24" length="17.52" width="4.00" shape="2000.00,-2.00 2004.50,1.00 2006.00,4.00 2004.50,7.00 2000.00,10.00"/>
    </edge>

    <edge id="-E0" from="J2" to="J1" priority="-1">
        <lane id="-E0_0" index="0" speed="70.00" length="1000.00" width="4.00" shape="1000.00,10.00 0.00,10.00"/>
        <lane id="-E0_1" index="1" speed="70.00" length="1000.00" width="4.00" shape="1000.00,6.00 0.00,6.00"/>
        <lane id="-E0_2" index="2" speed="70.00" length="1000.00" width="4.00" shape="1000.00,2.00 0.00,2.00"/>
    </edge>
    <edge id="-E1" from="J3" to="J2" priority="-1">
        <lane id="-E1_0" index="0" speed="70.00" length="1000.00" width="4.00" shape="2000.00,10.00 1000.00,10.00"/>
        <lane id="-E1_1" index="1" speed="70.00" length="1000.00" width="4.00" shape="2000.00,6.00 1000.00,6.00"/>
        <lane id="-E1_2" index="2" speed="70.00" length="1000.00" width="4.00" shape="2000.00,2.00 1000.00,2.00"/>
    </edge>
    <edge id="E0" from="J1" to="J2" priority="-1" length="1000.00">
        <lane id="E0_0" index="0" speed="70.00" length="1000.00" width="4.00" shape="0.00,-10.00 1000.00,-10.00"/>
        <lane id="E0_1" index="1" speed="70.00" length="1000.00" width="4.00" shape="0.00,-6.00 1000.00,-6.00"/>
        <lane id="E0_2" index="2" speed="70.00" length="1000.00" width="4.00" shape="0.00,-2.00 1000.00,-2.00"/>
    </edge>
    <edge id="E1" from="J2" to="J3" priority="-1">
        <lane id="E1_0" index="0" speed="70.00" length="1000.00" width="4.00" shape="1000.00,-10.00 2000.00,-10.00"/>
        <lane id="E1_1" index="1" speed="70.00" length="1000.00" width="4.00" shape="1000.00,-6.00 2000.00,-6.00"/>
        <lane id="E1_2" index="2" speed="70.00" length="1000.00" width="4.00" shape="1000.00,-2.00 2000.00,-2.00"/>
    </edge>

    <junction id="J1" type="priority" x="0.00" y="0.00" incLanes="-E0_0 -E0_1 -E0_2" intLanes=":J1_0_0 :J1_0_1 :J1_0_2" shape="0.00,0.00 0.00,12.00 0.00,0.00">
        <request index="0" response="000" foes="000" cont="0"/>
        <request index="1" response="000" foes="000" cont="0"/>
        <request index="2" response="000" foes="000" cont="0"/>
    </junction>
    <junction id="J2" type="priority" x="1000.00" y="0.00" incLanes="-E1_0 -E1_1 -E1_2 E0_0 E0_1 E0_2" intLanes=":J2_0_0 :J2_0_1 :J2_0_2 :J2_3_0 :J2_3_1 :J2_3_2" shape="1000.00,12.00 1000.00,-12.00 1000.00,12.00">
        <request index="0" response="000000" foes="000000" cont="0"/>
        <request index="1" response="000000" foes="000000" cont="0"/>
        <request index="2" response="000000" foes="000000" cont="0"/>
        <request index="3" response="000000" foes="000000" cont="0"/>
        <request index="4" response="000000" foes="000000" cont="0"/>
        <request index="5" response="000000" foes="000000" cont="0"/>
    </junction>
    <junction id="J3" type="priority" x="2000.00" y="0.00" incLanes="E1_0 E1_1 E1_2" intLanes=":J3_0_0 :J3_0_1 :J3_0_2" shape="2000.00,0.00 2000.00,-12.00 2000.00,0.00">
        <request index="0" response="000" foes="000" cont="0"/>
        <request index="1" response="000" foes="000" cont="0"/>
        <request index="2" response="000" foes="000" cont="0"/>
    </junction>

    <connection from="-E0" to="E0" fromLane="0" toLane="2" via=":J1_0_0" dir="t" state="M"/>
    <connection from="-E0" to="E0" fromLane="1" toLane="1" via=":J1_0_1" dir="t" state="M"/>
    <connection from="-E0" to="E0" fromLane="2" toLane="0" via=":J1_0_2" dir="t" state="M"/>
    <connection from="-E1" to="-E0" fromLane="0" toLane="0" via=":J2_0_0" dir="s" state="M"/>
    <connection from="-E1" to="-E0" fromLane="1" toLane="1" via=":J2_0_1" dir="s" state="M"/>
    <connection from="-E1" to="-E0" fromLane="2" toLane="2" via=":J2_0_2" dir="s" state="M"/>
    <connection from="E0" to="E1" fromLane="0" toLane="0" via=":J2_3_0" dir="s" state="M"/>
    <connection from="E0" to="E1" fromLane="1" toLane="1" via=":J2_3_1" dir="s" state="M"/>
    <connection from="E0" to="E1" fromLane="2" toLane="2" via=":J2_3_2" dir="s" state="M"/>
    <connection from="E1" to="-E1" fromLane="0" toLane="2" via=":J3_0_0" dir="t" state="M"/>
    <connection from="E1" to="-E1" fromLane="1" toLane="1" via=":J3_0_1" dir="t" state="M"/>
    <connection from="E1" to="-E1" fromLane="2" toLane="0" via=":J3_0_2" dir="t" state="M"/>

    <connection from=":J1_0" to="E0" fromLane="0" toLane="2" dir="t" state="M"/>
    <connection from=":J1_0" to="E0" fromLane="1" toLane="1" dir="t" state="M"/>
    <connection from=":J1_0" to="E0" fromLane="2" toLane="0" dir="t" state="M"/>
    <connection from=":J2_0" to="-E0" fromLane="0" toLane="0" dir="s" state="M"/>
    <connection from=":J2_0" to="-E0" fromLane="1" toLane="1" dir="s" state="M"/>
    <connection from=":J2_0" to="-E0" fromLane="2" toLane="2" dir="s" state="M"/>
    <connection from=":J2_3" to="E1" fromLane="0" toLane="0" dir="s" state="M"/>
    <connection from=":J2_3" to="E1" fromLane="1" toLane="1" dir="s" state="M"/>
    <connection from=":J2_3" to="E1" fromLane="2" toLane="2" dir="s" state="M"/>
    <connection from=":J3_0" to="-E1" fromLane="0" toLane="2" dir="t" state="M"/>
    <connection from=":J3_0" to="-E1" fromLane="1" toLane="1" dir="t" state="M"/>
    <connection from=":J3_0" to="-E1" fromLane="2" toLane="0" dir="t" state="M"/>

</net>
