<configuration>
    <net-file value="C:\Users\User\Desktop\SUMO_traffic_data_cosimulator\maps\highway_nomal\highway_nomal.net.xml"/>
    <route-files value="C:\Users\User\Desktop\SUMO_traffic_data_cosimulator\maps\highway_nomal\highway_nomal.rou.xml"/>
   <time>
      <step-length value = "0.1" />
   </time>
</configuration>
