<?xml version="1.0" encoding="UTF-8"?>

<!-- generated on 2023-08-06 01:48:06 by Eclipse SUMO netedit Version 1.15.0
<configuration xmlns:xsi="http://www.w3.org/2001/XMLSchema-instance" xsi:noNamespaceSchemaLocation="http://sumo.dlr.de/xsd/netconvertConfiguration.xsd">

    <input>
        <sumo-net-file value="C:\Users\User\Desktop\v2x\sumo\cross\cross.net.xml"/>
    </input>

    <output>
        <output-file value="C:\Users\User\Desktop\v2x\sumo\cross\cross.net.xml"/>
    </output>

    <processing>
        <geometry.min-radius.fix.railways value="false"/>
        <geometry.max-grade.fix value="false"/>
        <offset.disable-normalization value="true"/>
        <lefthand value="0"/>
    </processing>

    <junctions>
        <no-turnarounds value="true"/>
        <junctions.corner-detail value="5"/>
        <junctions.limit-turn-speed value="5.50"/>
        <rectangular-lane-cut value="0"/>
    </junctions>

    <pedestrian>
        <walkingareas value="0"/>
    </pedestrian>

    <netedit>
        <SUMOConfig-output value="C:\Users\User\Desktop\v2x\sumo\cross\corss.sumocfg"/>
        <route-files value="C:\Program Files (x86)\Eclipse\Sumo\SUMO-V2X-Communication-Research-Platooning-and-CIM-master\maps\NormalIntersection\NormalIntersection.rou.xml"/>
    </netedit>

</configuration>
-->

<edges version="1.9" xmlns:xsi="http://www.w3.org/2001/XMLSchema-instance" xsi:noNamespaceSchemaLocation="http://sumo.dlr.de/xsd/edges_file.xsd">
    <edge id="-gneE11" from="gneJ17" to="gneJ15" priority="-1" numLanes="3" speed="70.00" length="170.00"/>
    <edge id="-gneE12" from="gneJ18" to="gneJ15" priority="-1" numLanes="3" speed="70.00" length="170.00"/>
    <edge id="-gneE19" from="gneJ25" to="gneJ15" priority="-1" numLanes="3" speed="70.00" length="170.00"/>
    <edge id="-gneE9" from="gneJ15" to="gneJ14" priority="-1" numLanes="3" speed="70.00" length="170.00"/>
    <edge id="gneE11" from="gneJ15" to="gneJ17" priority="-1" numLanes="3" speed="70.00" length="170.00"/>
    <edge id="gneE12" from="gneJ15" to="gneJ18" priority="-1" numLanes="3" speed="70.00" length="170.00"/>
    <edge id="gneE19" from="gneJ15" to="gneJ25" priority="-1" numLanes="3" speed="70.00" length="170.00"/>
    <edge id="gneE9" from="gneJ14" to="gneJ15" priority="-1" numLanes="3" speed="70.00" length="170.00"/>
</edges>
