<configuration>
    <net-file value="C:\Users\User\Desktop\SUMO_traffic_data_cosimulator\maps\cross\cross.net.xml"/>
    <route-files value="C:\Users\User\Desktop\SUMO_traffic_data_cosimulator\maps\cross\cross.rou.xml"/>
    <time>
      <step-length value = "0.1" />
   </time>
</configuration>
