<?xml version="1.0" encoding="UTF-8"?>

<!-- generated on 2023-05-01 21:29:29 by Eclipse SUMO netedit Version 1.15.0
-->

<routes xmlns:xsi="http://www.w3.org/2001/XMLSchema-instance" xsi:noNamespaceSchemaLocation="http://sumo.dlr.de/xsd/routes_file.xsd">
    <!-- Routes -->
    <route id="r_0" edges="E0 E1 -E1 -E0 E0 E1 -E1 -E0 E0 E1 -E1 -E0 E0 E1 -E1 -E0 E0 E1 -E1 -E0 E0 E1 -E1 -E0 E0 E1 -E1 -E0 E0 E1 -E1 -E0 E0 E1 -E1 -E0 E0 E1 -E1 -E0 E0 E1 -E1 -E0 E0 E1 -E1 -E0 E0 E1 -E1 -E0 E0 E1 -E1 -E0"/>
    <!-- Vehicles, persons and containers (sorted by depart) -->
    <vehicle id="100" depart="0.00" departLane="random" departSpeed="50.00" route="r_0"/>
    <vehicle id="101" depart="0.00" departLane="random" departSpeed="50.00" route="r_0"/>
    <vehicle id="102" depart="0.00" departLane="random" departSpeed="50.00" route="r_0"/>
    <vehicle id="103" depart="0.00" departLane="random" departSpeed="50.00" route="r_0"/>
    <vehicle id="104" depart="0.00" departLane="random" departSpeed="50.00" route="r_0"/>
    <vehicle id="105" depart="0.00" departLane="random" departSpeed="50.00" route="r_0"/>
    <vehicle id="106" depart="0.00" departLane="random" departSpeed="50.00" route="r_0"/>
    <vehicle id="107" depart="0.00" departLane="random" departSpeed="50.00" route="r_0"/>
    <vehicle id="108" depart="0.00" departLane="random" departSpeed="50.00" route="r_0"/>
    <vehicle id="109" depart="0.00" departLane="random" departSpeed="50.00" departEdge="0" arrivalSpeed="70.00" route="r_0"/>
    <vehicle id="110" depart="0.00" departLane="random" departSpeed="50.00" route="r_0"/>
    <vehicle id="111" depart="0.00" departLane="random" departSpeed="50.00" route="r_0"/>
    <vehicle id="112" depart="0.00" departLane="random" departSpeed="50.00" route="r_0"/>
    <vehicle id="113" depart="0.00" departLane="random" departSpeed="50.00" route="r_0"/>
    <vehicle id="114" depart="0.00" departLane="random" departSpeed="50.00" route="r_0"/>
    <vehicle id="115" depart="0.00" departLane="random" departSpeed="50.00" route="r_0"/>
    <vehicle id="116" depart="0.00" departLane="random" departSpeed="50.00" route="r_0"/>
    <vehicle id="117" depart="0.00" departLane="random" departSpeed="50.00" route="r_0"/>
    <vehicle id="118" depart="0.00" departLane="random" departSpeed="50.00" route="r_0"/>
    <vehicle id="119" depart="0.00" departLane="random" departSpeed="50.00" route="r_0"/>
    <vehicle id="120" depart="0.00" departLane="random" departSpeed="50.00" route="r_0"/>
    <vehicle id="121" depart="0.00" departLane="random" departSpeed="50.00" route="r_0"/>
    <vehicle id="122" depart="0.00" departLane="random" departSpeed="50.00" route="r_0"/>
    <vehicle id="123" depart="0.00" departLane="random" departSpeed="50.00" route="r_0"/>
    <vehicle id="124" depart="0.00" departLane="random" departSpeed="50.00" route="r_0"/>
    <vehicle id="125" depart="0.00" departLane="random" departSpeed="50.00" route="r_0"/>
    <vehicle id="126" depart="0.00" departLane="random" departSpeed="50.00" route="r_0"/>
    <vehicle id="127" depart="0.00" departLane="random" departSpeed="50.00" route="r_0"/>
    <vehicle id="128" depart="0.00" departLane="random" departSpeed="50.00" route="r_0"/>
    <vehicle id="129" depart="0.00" departLane="random" departSpeed="50.00" route="r_0"/>
    <vehicle id="130" depart="0.00" departLane="random" departSpeed="50.00" route="r_0"/>
    <vehicle id="131" depart="0.00" departLane="random" departSpeed="50.00" route="r_0"/>
    <vehicle id="132" depart="0.00" departLane="random" departSpeed="50.00" route="r_0"/>
    <vehicle id="133" depart="0.00" departLane="random" departSpeed="50.00" route="r_0"/>
    <vehicle id="134" depart="0.00" departLane="random" departSpeed="50.00" route="r_0"/>
    <vehicle id="135" depart="0.00" departLane="random" departSpeed="50.00" route="r_0"/>
    <vehicle id="136" depart="0.00" departLane="random" departSpeed="50.00" route="r_0"/>
    <vehicle id="137" depart="0.00" departLane="random" departSpeed="50.00" route="r_0"/>
    <vehicle id="138" depart="0.00" departLane="random" departSpeed="50.00" route="r_0"/>
    <vehicle id="139" depart="0.00" departLane="random" departSpeed="50.00" route="r_0"/>
    <vehicle id="140" depart="0.00" departLane="random" departSpeed="50.00" route="r_0"/>
    <vehicle id="141" depart="0.00" departLane="random" departSpeed="50.00" route="r_0"/>
    <vehicle id="142" depart="0.00" departLane="random" departSpeed="50.00" route="r_0"/>
    <vehicle id="143" depart="0.00" departLane="random" departSpeed="50.00" route="r_0"/>
    <vehicle id="144" depart="0.00" departLane="random" departSpeed="50.00" route="r_0"/>
    <vehicle id="145" depart="0.00" departLane="random" departSpeed="50.00" route="r_0"/>
    <vehicle id="146" depart="0.00" departLane="random" departSpeed="50.00" route="r_0"/>
    <vehicle id="147" depart="0.00" departLane="random" departSpeed="50.00" route="r_0"/>
    <vehicle id="148" depart="0.00" departLane="random" departSpeed="50.00" route="r_0"/>
    <vehicle id="149" depart="0.00" departLane="random" departSpeed="50.00" route="r_0"/>
    <vehicle id="150" depart="0.00" departLane="random" departSpeed="50.00" route="r_0"/>
    <vehicle id="151" depart="0.00" departLane="random" departSpeed="50.00" route="r_0"/>
    <vehicle id="152" depart="0.00" departLane="random" departSpeed="50.00" route="r_0"/>
    <vehicle id="153" depart="0.00" departLane="random" departSpeed="50.00" route="r_0"/>
    <vehicle id="154" depart="0.00" departLane="random" departSpeed="50.00" route="r_0"/>
    <vehicle id="155" depart="0.00" departLane="random" departSpeed="50.00" route="r_0"/>
    <vehicle id="156" depart="0.00" departLane="random" departSpeed="50.00" route="r_0"/>
    <vehicle id="157" depart="0.00" departLane="random" departSpeed="50.00" route="r_0"/>
    <vehicle id="158" depart="0.00" departLane="random" departSpeed="50.00" route="r_0"/>
    <vehicle id="159" depart="0.00" departLane="random" departSpeed="50.00" route="r_0"/>
    <vehicle id="160" depart="0.00" departLane="random" departSpeed="50.00" route="r_0"/>
    <vehicle id="161" depart="0.00" departLane="random" departSpeed="50.00" route="r_0"/>
    <vehicle id="162" depart="0.00" departLane="random" departSpeed="50.00" route="r_0"/>
    <vehicle id="163" depart="0.00" departLane="random" departSpeed="50.00" route="r_0"/>
    <vehicle id="164" depart="0.00" departLane="random" departSpeed="50.00" route="r_0"/>
    <vehicle id="165" depart="0.00" departLane="random" departSpeed="50.00" route="r_0"/>
    <vehicle id="166" depart="0.00" departLane="random" departSpeed="50.00" route="r_0"/>
    <vehicle id="167" depart="0.00" departLane="random" departSpeed="50.00" route="r_0"/>
    <vehicle id="168" depart="0.00" departLane="random" departSpeed="50.00" route="r_0"/>
    <vehicle id="169" depart="0.00" departLane="random" departSpeed="50.00" route="r_0"/>
    <vehicle id="170" depart="0.00" departLane="random" departSpeed="50.00" route="r_0"/>
    <vehicle id="171" depart="0.00" departLane="random" departSpeed="50.00" route="r_0"/>
    <vehicle id="172" depart="0.00" departLane="random" departSpeed="50.00" route="r_0"/>
    <vehicle id="173" depart="0.00" departLane="random" departSpeed="50.00" route="r_0"/>
    <vehicle id="174" depart="0.00" departLane="random" departSpeed="50.00" route="r_0"/>
    <vehicle id="175" depart="0.00" departLane="random" departSpeed="50.00" route="r_0"/>
    <vehicle id="176" depart="0.00" departLane="random" departSpeed="50.00" route="r_0"/>
    <vehicle id="177" depart="0.00" departLane="random" departSpeed="50.00" route="r_0"/>
    <vehicle id="178" depart="0.00" departLane="random" departSpeed="50.00" route="r_0"/>
    <vehicle id="179" depart="0.00" departLane="random" departSpeed="50.00" route="r_0"/>
    <vehicle id="180" depart="0.00" departLane="random" departSpeed="50.00" route="r_0"/>
    <vehicle id="181" depart="0.00" departLane="random" departSpeed="50.00" route="r_0"/>
    <vehicle id="182" depart="0.00" departLane="random" departSpeed="50.00" route="r_0"/>
    <vehicle id="183" depart="0.00" departLane="random" departSpeed="50.00" route="r_0"/>
    <vehicle id="184" depart="0.00" departLane="random" departSpeed="50.00" route="r_0"/>
    <vehicle id="185" depart="0.00" departLane="random" departSpeed="50.00" route="r_0"/>
    <vehicle id="186" depart="0.00" departLane="random" departSpeed="50.00" route="r_0"/>
    <vehicle id="187" depart="0.00" departLane="random" departSpeed="50.00" route="r_0"/>
    <vehicle id="188" depart="0.00" departLane="random" departSpeed="50.00" route="r_0"/>
    <vehicle id="189" depart="0.00" departLane="random" departSpeed="50.00" route="r_0"/>
    <vehicle id="190" depart="0.00" departLane="random" departSpeed="50.00" route="r_0"/>
    <vehicle id="191" depart="0.00" departLane="random" departSpeed="50.00" route="r_0"/>
    <vehicle id="192" depart="0.00" departLane="random" departSpeed="50.00" route="r_0"/>
    <vehicle id="193" depart="0.00" departLane="random" departSpeed="50.00" route="r_0"/>
    <vehicle id="194" depart="0.00" departLane="random" departSpeed="50.00" route="r_0"/>
    <vehicle id="195" depart="0.00" departLane="random" departSpeed="50.00" route="r_0"/>
    <vehicle id="196" depart="0.00" departLane="random" departSpeed="50.00" route="r_0"/>
    <vehicle id="197" depart="0.00" departLane="random" departSpeed="50.00" route="r_0"/>
    <vehicle id="198" depart="0.00" departLane="random" departSpeed="50.00" route="r_0"/>
    <vehicle id="199" depart="0.00" departLane="random" departSpeed="50.00" route="r_0"/>
    <vehicle id="200" depart="0.00" departLane="random" departSpeed="50.00" route="r_0"/>
    <vehicle id="201" depart="0.00" departLane="random" departSpeed="50.00" route="r_0"/>
    <vehicle id="202" depart="0.00" departLane="random" departSpeed="50.00" route="r_0"/>
    <vehicle id="203" depart="0.00" departLane="random" departSpeed="50.00" route="r_0"/>
    <vehicle id="204" depart="0.00" departLane="random" departSpeed="50.00" route="r_0"/>
    <vehicle id="205" depart="0.00" departLane="random" departSpeed="50.00" route="r_0"/>
    <vehicle id="206" depart="0.00" departLane="random" departSpeed="50.00" route="r_0"/>
    <vehicle id="207" depart="0.00" departLane="random" departSpeed="50.00" route="r_0"/>
    <vehicle id="208" depart="0.00" departLane="random" departSpeed="50.00" route="r_0"/>
    <vehicle id="209" depart="0.00" departLane="random" departSpeed="50.00" route="r_0"/>
    <vehicle id="210" depart="0.00" departLane="random" departSpeed="50.00" route="r_0"/>
    <vehicle id="211" depart="0.00" departLane="random" departSpeed="50.00" route="r_0"/>
    <vehicle id="212" depart="0.00" departLane="random" departSpeed="50.00" route="r_0"/>
    <vehicle id="213" depart="0.00" departLane="random" departSpeed="50.00" route="r_0"/>
    <vehicle id="214" depart="0.00" departLane="random" departSpeed="50.00" route="r_0"/>
    <vehicle id="215" depart="0.00" departLane="random" departSpeed="50.00" route="r_0"/>
    <vehicle id="216" depart="0.00" departLane="random" departSpeed="50.00" route="r_0"/>
    <vehicle id="217" depart="0.00" departLane="random" departSpeed="50.00" route="r_0"/>
    <vehicle id="218" depart="0.00" departLane="random" departSpeed="50.00" route="r_0"/>
    <vehicle id="219" depart="0.00" departLane="random" departSpeed="50.00" route="r_0"/>
    <vehicle id="220" depart="0.00" departLane="random" departSpeed="50.00" route="r_0"/>
    <vehicle id="221" depart="0.00" departLane="random" departSpeed="50.00" route="r_0"/>
    <vehicle id="222" depart="0.00" departLane="random" departSpeed="50.00" route="r_0"/>
    <vehicle id="223" depart="0.00" departLane="random" departSpeed="50.00" route="r_0"/>
    <vehicle id="224" depart="0.00" departLane="random" departSpeed="50.00" route="r_0"/>
    <vehicle id="225" depart="0.00" departLane="random" departSpeed="50.00" route="r_0"/>
    <vehicle id="226" depart="0.00" departLane="random" departSpeed="50.00" route="r_0"/>
    <vehicle id="227" depart="0.00" departLane="random" departSpeed="50.00" route="r_0"/>
    <vehicle id="228" depart="0.00" departLane="random" departSpeed="50.00" route="r_0"/>
    <vehicle id="229" depart="0.00" departLane="random" departSpeed="50.00" route="r_0"/>
    <vehicle id="230" depart="0.00" departLane="random" departSpeed="50.00" route="r_0"/>
    <vehicle id="231" depart="0.00" departLane="random" departSpeed="50.00" route="r_0"/>
    <vehicle id="232" depart="0.00" departLane="random" departSpeed="50.00" route="r_0"/>
    <vehicle id="233" depart="0.00" departLane="random" departSpeed="50.00" route="r_0"/>
    <vehicle id="234" depart="0.00" departLane="random" departSpeed="50.00" route="r_0"/>
    <vehicle id="235" depart="0.00" departLane="random" departSpeed="50.00" route="r_0"/>
    <vehicle id="236" depart="0.00" departLane="random" departSpeed="50.00" route="r_0"/>
    <vehicle id="237" depart="0.00" departLane="random" departSpeed="50.00" route="r_0"/>
    <vehicle id="238" depart="0.00" departLane="random" departSpeed="50.00" route="r_0"/>
    <vehicle id="239" depart="0.00" departLane="random" departSpeed="50.00" route="r_0"/>
    <vehicle id="240" depart="0.00" departLane="random" departSpeed="50.00" route="r_0"/>
    <vehicle id="241" depart="0.00" departLane="random" departSpeed="50.00" route="r_0"/>
    <vehicle id="242" depart="0.00" departLane="random" departSpeed="50.00" route="r_0"/>
    <vehicle id="243" depart="0.00" departLane="random" departSpeed="50.00" route="r_0"/>
    <vehicle id="244" depart="0.00" departLane="random" departSpeed="50.00" route="r_0"/>
    <vehicle id="245" depart="0.00" departLane="random" departSpeed="50.00" route="r_0"/>
    <vehicle id="246" depart="0.00" departLane="random" departSpeed="50.00" route="r_0"/>
    <vehicle id="247" depart="0.00" departLane="random" departSpeed="50.00" route="r_0"/>
    <vehicle id="248" depart="0.00" departLane="random" departSpeed="50.00" route="r_0"/>
    <vehicle id="249" depart="0.00" departLane="random" departSpeed="50.00" route="r_0"/>
    <vehicle id="250" depart="0.00" departLane="random" departSpeed="50.00" route="r_0"/>
    <vehicle id="251" depart="0.00" departLane="random" departSpeed="50.00" route="r_0"/>
    <vehicle id="252" depart="0.00" departLane="random" departSpeed="50.00" route="r_0"/>
    <vehicle id="253" depart="0.00" departLane="random" departSpeed="50.00" route="r_0"/>
    <vehicle id="254" depart="0.00" departLane="random" departSpeed="50.00" route="r_0"/>
    <vehicle id="255" depart="0.00" departLane="random" departSpeed="50.00" route="r_0"/>
    <vehicle id="256" depart="0.00" departLane="random" departSpeed="50.00" route="r_0"/>
    <vehicle id="257" depart="0.00" departLane="random" departSpeed="50.00" route="r_0"/>
    <vehicle id="258" depart="0.00" departLane="random" departSpeed="50.00" route="r_0"/>
    <vehicle id="259" depart="0.00" departLane="random" departSpeed="50.00" route="r_0"/>
    <vehicle id="260" depart="0.00" departLane="random" departSpeed="50.00" route="r_0"/>
    <vehicle id="261" depart="0.00" departLane="random" departSpeed="50.00" route="r_0"/>
    <vehicle id="262" depart="0.00" departLane="random" departSpeed="50.00" route="r_0"/>
    <vehicle id="263" depart="0.00" departLane="random" departSpeed="50.00" route="r_0"/>
    <vehicle id="264" depart="0.00" departLane="random" departSpeed="50.00" route="r_0"/>
    <vehicle id="265" depart="0.00" departLane="random" departSpeed="50.00" route="r_0"/>
    <vehicle id="266" depart="0.00" departLane="random" departSpeed="50.00" route="r_0"/>
    <vehicle id="267" depart="0.00" departLane="random" departSpeed="50.00" route="r_0"/>
    <vehicle id="268" depart="0.00" departLane="random" departSpeed="50.00" route="r_0"/>
    <vehicle id="269" depart="0.00" departLane="random" departSpeed="50.00" route="r_0"/>
    <vehicle id="270" depart="0.00" departLane="random" departSpeed="50.00" route="r_0"/>
    <vehicle id="271" depart="0.00" departLane="random" departSpeed="50.00" route="r_0"/>
    <vehicle id="272" depart="0.00" departLane="random" departSpeed="50.00" route="r_0"/>
    <vehicle id="273" depart="0.00" departLane="random" departSpeed="50.00" route="r_0"/>
    <vehicle id="274" depart="0.00" departLane="random" departSpeed="50.00" route="r_0"/>
    <vehicle id="275" depart="0.00" departLane="random" departSpeed="50.00" route="r_0"/>
    <vehicle id="276" depart="0.00" departLane="random" departSpeed="50.00" route="r_0"/>
    <vehicle id="277" depart="0.00" departLane="random" departSpeed="50.00" route="r_0"/>
    <vehicle id="278" depart="0.00" departLane="random" departSpeed="50.00" route="r_0"/>
    <vehicle id="279" depart="0.00" departLane="random" departSpeed="50.00" route="r_0"/>
    <vehicle id="280" depart="0.00" departLane="random" departSpeed="50.00" route="r_0"/>
    <vehicle id="281" depart="0.00" departLane="random" departSpeed="50.00" route="r_0"/>
    <vehicle id="282" depart="0.00" departLane="random" departSpeed="50.00" route="r_0"/>
    <vehicle id="283" depart="0.00" departLane="random" departSpeed="50.00" route="r_0"/>
    <vehicle id="284" depart="0.00" departLane="random" departSpeed="50.00" route="r_0"/>
    <vehicle id="285" depart="0.00" departLane="random" departSpeed="50.00" route="r_0"/>
    <vehicle id="286" depart="0.00" departLane="random" departSpeed="50.00" route="r_0"/>
    <vehicle id="287" depart="0.00" departLane="random" departSpeed="50.00" route="r_0"/>
    <vehicle id="288" depart="0.00" departLane="random" departSpeed="50.00" route="r_0"/>
    <vehicle id="289" depart="0.00" departLane="random" departSpeed="50.00" route="r_0"/>
    <vehicle id="290" depart="0.00" departLane="random" departSpeed="50.00" route="r_0"/>
    <vehicle id="291" depart="0.00" departLane="random" departSpeed="50.00" route="r_0"/>
    <vehicle id="292" depart="0.00" departLane="random" departSpeed="50.00" route="r_0"/>
    <vehicle id="293" depart="0.00" departLane="random" departSpeed="50.00" route="r_0"/>
    <vehicle id="294" depart="0.00" departLane="random" departSpeed="50.00" route="r_0"/>
    <vehicle id="295" depart="0.00" departLane="random" departSpeed="50.00" route="r_0"/>
    <vehicle id="296" depart="0.00" departLane="random" departSpeed="50.00" route="r_0"/>
    <vehicle id="297" depart="0.00" departLane="random" departSpeed="50.00" route="r_0"/>
    <vehicle id="298" depart="0.00" departLane="random" departSpeed="50.00" route="r_0"/>
    <vehicle id="299" depart="0.00" departLane="random" departSpeed="50.00" route="r_0"/>
   <!--<vehicle id="300" depart="0.00" departLane="random" departSpeed="50.00" route="r_0"/>
    <vehicle id="301" depart="0.00" departLane="random" departSpeed="50.00" route="r_0"/>
    <vehicle id="302" depart="0.00" departLane="random" departSpeed="50.00" route="r_0"/>
    <vehicle id="303" depart="0.00" departLane="random" departSpeed="50.00" route="r_0"/>
    <vehicle id="304" depart="0.00" departLane="random" departSpeed="50.00" route="r_0"/>
    <vehicle id="305" depart="0.00" departLane="random" departSpeed="50.00" route="r_0"/>
    <vehicle id="306" depart="0.00" departLane="random" departSpeed="50.00" route="r_0"/>
    <vehicle id="307" depart="0.00" departLane="random" departSpeed="50.00" route="r_0"/>
    <vehicle id="308" depart="0.00" departLane="random" departSpeed="50.00" route="r_0"/>
    <vehicle id="309" depart="0.00" departLane="random" departSpeed="50.00" route="r_0"/>
    <vehicle id="310" depart="0.00" departLane="random" departSpeed="50.00" route="r_0"/>
    <vehicle id="311" depart="0.00" departLane="random" departSpeed="50.00" route="r_0"/>
    <vehicle id="312" depart="0.00" departLane="random" departSpeed="50.00" route="r_0"/>
    <vehicle id="313" depart="0.00" departLane="random" departSpeed="50.00" route="r_0"/>
    <vehicle id="314" depart="0.00" departLane="random" departSpeed="50.00" route="r_0"/>
    <vehicle id="315" depart="0.00" departLane="random" departSpeed="50.00" route="r_0"/>
    <vehicle id="316" depart="0.00" departLane="random" departSpeed="50.00" route="r_0"/>
    <vehicle id="317" depart="0.00" departLane="random" departSpeed="50.00" route="r_0"/>
    <vehicle id="318" depart="0.00" departLane="random" departSpeed="50.00" route="r_0"/>
    <vehicle id="319" depart="0.00" departLane="random" departSpeed="50.00" route="r_0"/>
    <vehicle id="320" depart="0.00" departLane="random" departSpeed="50.00" route="r_0"/>
    <vehicle id="321" depart="0.00" departLane="random" departSpeed="50.00" route="r_0"/>
    <vehicle id="322" depart="0.00" departLane="random" departSpeed="50.00" route="r_0"/>
    <vehicle id="323" depart="0.00" departLane="random" departSpeed="50.00" route="r_0"/>
    <vehicle id="324" depart="0.00" departLane="random" departSpeed="50.00" route="r_0"/>
    <vehicle id="325" depart="0.00" departLane="random" departSpeed="50.00" route="r_0"/>
    <vehicle id="326" depart="0.00" departLane="random" departSpeed="50.00" route="r_0"/>
    <vehicle id="327" depart="0.00" departLane="random" departSpeed="50.00" route="r_0"/>
    <vehicle id="328" depart="0.00" departLane="random" departSpeed="50.00" route="r_0"/>
    <vehicle id="329" depart="0.00" departLane="random" departSpeed="50.00" route="r_0"/>
    <vehicle id="330" depart="0.00" departLane="random" departSpeed="50.00" route="r_0"/>
    <vehicle id="331" depart="0.00" departLane="random" departSpeed="50.00" route="r_0"/>
    <vehicle id="332" depart="0.00" departLane="random" departSpeed="50.00" route="r_0"/>
    <vehicle id="333" depart="0.00" departLane="random" departSpeed="50.00" route="r_0"/>
    <vehicle id="334" depart="0.00" departLane="random" departSpeed="50.00" route="r_0"/>
    <vehicle id="335" depart="0.00" departLane="random" departSpeed="50.00" route="r_0"/>
    <vehicle id="336" depart="0.00" departLane="random" departSpeed="50.00" route="r_0"/>
    <vehicle id="337" depart="0.00" departLane="random" departSpeed="50.00" route="r_0"/>
    <vehicle id="338" depart="0.00" departLane="random" departSpeed="50.00" route="r_0"/>
    <vehicle id="339" depart="0.00" departLane="random" departSpeed="50.00" route="r_0"/>
    <vehicle id="340" depart="0.00" departLane="random" departSpeed="50.00" route="r_0"/>
    <vehicle id="341" depart="0.00" departLane="random" departSpeed="50.00" route="r_0"/>
    <vehicle id="342" depart="0.00" departLane="random" departSpeed="50.00" route="r_0"/>
    <vehicle id="343" depart="0.00" departLane="random" departSpeed="50.00" route="r_0"/>
    <vehicle id="344" depart="0.00" departLane="random" departSpeed="50.00" route="r_0"/>
    <vehicle id="345" depart="0.00" departLane="random" departSpeed="50.00" route="r_0"/>
    <vehicle id="346" depart="0.00" departLane="random" departSpeed="50.00" route="r_0"/>
    <vehicle id="347" depart="0.00" departLane="random" departSpeed="50.00" route="r_0"/>
    <vehicle id="348" depart="0.00" departLane="random" departSpeed="50.00" route="r_0"/>
    <vehicle id="349" depart="0.00" departLane="random" departSpeed="50.00" route="r_0"/>
    <vehicle id="350" depart="0.00" departLane="random" departSpeed="50.00" route="r_0"/>
    <vehicle id="351" depart="0.00" departLane="random" departSpeed="50.00" route="r_0"/>
    <vehicle id="352" depart="0.00" departLane="random" departSpeed="50.00" route="r_0"/>
    <vehicle id="353" depart="0.00" departLane="random" departSpeed="50.00" route="r_0"/>
    <vehicle id="354" depart="0.00" departLane="random" departSpeed="50.00" route="r_0"/>
    <vehicle id="355" depart="0.00" departLane="random" departSpeed="50.00" route="r_0"/>
    <vehicle id="356" depart="0.00" departLane="random" departSpeed="50.00" route="r_0"/>
    <vehicle id="357" depart="0.00" departLane="random" departSpeed="50.00" route="r_0"/>
    <vehicle id="358" depart="0.00" departLane="random" departSpeed="50.00" route="r_0"/>
    <vehicle id="359" depart="0.00" departLane="random" departSpeed="50.00" route="r_0"/>
    <vehicle id="360" depart="0.00" departLane="random" departSpeed="50.00" route="r_0"/>
    <vehicle id="361" depart="0.00" departLane="random" departSpeed="50.00" route="r_0"/>
    <vehicle id="362" depart="0.00" departLane="random" departSpeed="50.00" route="r_0"/>
    <vehicle id="363" depart="0.00" departLane="random" departSpeed="50.00" route="r_0"/>
    <vehicle id="364" depart="0.00" departLane="random" departSpeed="50.00" route="r_0"/>
    <vehicle id="365" depart="0.00" departLane="random" departSpeed="50.00" route="r_0"/>
    <vehicle id="366" depart="0.00" departLane="random" departSpeed="50.00" route="r_0"/>
    <vehicle id="367" depart="0.00" departLane="random" departSpeed="50.00" route="r_0"/>
    <vehicle id="368" depart="0.00" departLane="random" departSpeed="50.00" route="r_0"/>
    <vehicle id="369" depart="0.00" departLane="random" departSpeed="50.00" route="r_0"/>
    <vehicle id="370" depart="0.00" departLane="random" departSpeed="50.00" route="r_0"/>
    <vehicle id="371" depart="0.00" departLane="random" departSpeed="50.00" route="r_0"/>
    <vehicle id="372" depart="0.00" departLane="random" departSpeed="50.00" route="r_0"/>
    <vehicle id="373" depart="0.00" departLane="random" departSpeed="50.00" route="r_0"/>
    <vehicle id="374" depart="0.00" departLane="random" departSpeed="50.00" route="r_0"/>
    <vehicle id="375" depart="0.00" departLane="random" departSpeed="50.00" route="r_0"/>
    <vehicle id="376" depart="0.00" departLane="random" departSpeed="50.00" route="r_0"/>
    <vehicle id="377" depart="0.00" departLane="random" departSpeed="50.00" route="r_0"/>
    <vehicle id="378" depart="0.00" departLane="random" departSpeed="50.00" route="r_0"/>
    <vehicle id="379" depart="0.00" departLane="random" departSpeed="50.00" route="r_0"/>
    <vehicle id="380" depart="0.00" departLane="random" departSpeed="50.00" route="r_0"/>
    <vehicle id="381" depart="0.00" departLane="random" departSpeed="50.00" route="r_0"/>
    <vehicle id="382" depart="0.00" departLane="random" departSpeed="50.00" route="r_0"/>
    <vehicle id="383" depart="0.00" departLane="random" departSpeed="50.00" route="r_0"/>
    <vehicle id="384" depart="0.00" departLane="random" departSpeed="50.00" route="r_0"/>
    <vehicle id="385" depart="0.00" departLane="random" departSpeed="50.00" route="r_0"/>
    <vehicle id="386" depart="0.00" departLane="random" departSpeed="50.00" route="r_0"/>
    <vehicle id="387" depart="0.00" departLane="random" departSpeed="50.00" route="r_0"/>
    <vehicle id="388" depart="0.00" departLane="random" departSpeed="50.00" route="r_0"/>
    <vehicle id="389" depart="0.00" departLane="random" departSpeed="50.00" route="r_0"/>
    <vehicle id="390" depart="0.00" departLane="random" departSpeed="50.00" route="r_0"/>
    <vehicle id="391" depart="0.00" departLane="random" departSpeed="50.00" route="r_0"/>
    <vehicle id="392" depart="0.00" departLane="random" departSpeed="50.00" route="r_0"/>
    <vehicle id="393" depart="0.00" departLane="random" departSpeed="50.00" route="r_0"/>
    <vehicle id="394" depart="0.00" departLane="random" departSpeed="50.00" route="r_0"/>
    <vehicle id="395" depart="0.00" departLane="random" departSpeed="50.00" route="r_0"/>
    <vehicle id="396" depart="0.00" departLane="random" departSpeed="50.00" route="r_0"/>
    <vehicle id="397" depart="0.00" departLane="random" departSpeed="50.00" route="r_0"/>
    <vehicle id="398" depart="0.00" departLane="random" departSpeed="50.00" route="r_0"/>
    <vehicle id="399" depart="0.00" departLane="random" departSpeed="50.00" route="r_0"/>
   <vehicle id="400" depart="0.00" departLane="random" departSpeed="50.00" route="r_0"/>
    <vehicle id="401" depart="0.00" departLane="random" departSpeed="50.00" route="r_0"/>
    <vehicle id="402" depart="0.00" departLane="random" departSpeed="50.00" route="r_0"/>
    <vehicle id="403" depart="0.00" departLane="random" departSpeed="50.00" route="r_0"/>
    <vehicle id="404" depart="0.00" departLane="random" departSpeed="50.00" route="r_0"/>
    <vehicle id="405" depart="0.00" departLane="random" departSpeed="50.00" route="r_0"/>
    <vehicle id="406" depart="0.00" departLane="random" departSpeed="50.00" route="r_0"/>
    <vehicle id="407" depart="0.00" departLane="random" departSpeed="50.00" route="r_0"/>
    <vehicle id="408" depart="0.00" departLane="random" departSpeed="50.00" route="r_0"/>
    <vehicle id="409" depart="0.00" departLane="random" departSpeed="50.00" route="r_0"/>
    <vehicle id="410" depart="0.00" departLane="random" departSpeed="50.00" route="r_0"/>
    <vehicle id="411" depart="0.00" departLane="random" departSpeed="50.00" route="r_0"/>
    <vehicle id="412" depart="0.00" departLane="random" departSpeed="50.00" route="r_0"/>
    <vehicle id="413" depart="0.00" departLane="random" departSpeed="50.00" route="r_0"/>
    <vehicle id="414" depart="0.00" departLane="random" departSpeed="50.00" route="r_0"/>
    <vehicle id="415" depart="0.00" departLane="random" departSpeed="50.00" route="r_0"/>
    <vehicle id="416" depart="0.00" departLane="random" departSpeed="50.00" route="r_0"/>
    <vehicle id="417" depart="0.00" departLane="random" departSpeed="50.00" route="r_0"/>
    <vehicle id="418" depart="0.00" departLane="random" departSpeed="50.00" route="r_0"/>
    <vehicle id="419" depart="0.00" departLane="random" departSpeed="50.00" route="r_0"/>
    <vehicle id="420" depart="0.00" departLane="random" departSpeed="50.00" route="r_0"/>
    <vehicle id="421" depart="0.00" departLane="random" departSpeed="50.00" route="r_0"/>