<configuration>
    <net-file value="C:\Users\User\Desktop\SUMO_traffic_data_cosimulator\maps\straight_trafficlight\straight_trafficlight.net.xml"/>
    <route-files value="C:\Users\User\Desktop\SUMO_traffic_data_cosimulator\maps\straight_trafficlight\straight_trafficlight.rou.xml"/>
     <time>
      <step-length value = "0.1" />
   </time>
</configuration>
