<?xml version="1.0" encoding="UTF-8"?>

<!-- generated on 2023-08-06 01:48:06 by Eclipse SUMO netedit Version 1.15.0
<configuration xmlns:xsi="http://www.w3.org/2001/XMLSchema-instance" xsi:noNamespaceSchemaLocation="http://sumo.dlr.de/xsd/netconvertConfiguration.xsd">

    <input>
        <sumo-net-file value="C:\Users\User\Desktop\v2x\sumo\cross\cross.net.xml"/>
    </input>

    <output>
        <output-file value="C:\Users\User\Desktop\v2x\sumo\cross\cross.net.xml"/>
    </output>

    <processing>
        <geometry.min-radius.fix.railways value="false"/>
        <geometry.max-grade.fix value="false"/>
        <offset.disable-normalization value="true"/>
        <lefthand value="0"/>
    </processing>

    <junctions>
        <no-turnarounds value="true"/>
        <junctions.corner-detail value="5"/>
        <junctions.limit-turn-speed value="5.50"/>
        <rectangular-lane-cut value="0"/>
    </junctions>

    <pedestrian>
        <walkingareas value="0"/>
    </pedestrian>

    <netedit>
        <SUMOConfig-output value="C:\Users\User\Desktop\v2x\sumo\cross\corss.sumocfg"/>
        <route-files value="C:\Program Files (x86)\Eclipse\Sumo\SUMO-V2X-Communication-Research-Platooning-and-CIM-master\maps\NormalIntersection\NormalIntersection.rou.xml"/>
    </netedit>

</configuration>
-->

<connections version="1.9" xmlns:xsi="http://www.w3.org/2001/XMLSchema-instance" xsi:noNamespaceSchemaLocation="http://sumo.dlr.de/xsd/connections_file.xsd">
    <connection from="-gneE11" to="gneE19" fromLane="0" toLane="0"/>
    <connection from="-gneE11" to="gneE12" fromLane="0" toLane="0"/>
    <connection from="-gneE11" to="gneE12" fromLane="1" toLane="1"/>
    <connection from="-gneE11" to="gneE12" fromLane="2" toLane="2"/>
    <connection from="-gneE11" to="-gneE9" fromLane="2" toLane="2"/>

    <connection from="-gneE12" to="-gneE9" fromLane="0" toLane="0"/>
    <connection from="-gneE12" to="gneE11" fromLane="0" toLane="0"/>
    <connection from="-gneE12" to="gneE11" fromLane="1" toLane="1"/>
    <connection from="-gneE12" to="gneE11" fromLane="2" toLane="2"/>
    <connection from="-gneE12" to="gneE19" fromLane="2" toLane="2"/>

    <connection from="-gneE19" to="gneE12" fromLane="0" toLane="0"/>
    <connection from="-gneE19" to="-gneE9" fromLane="0" toLane="0"/>
    <connection from="-gneE19" to="-gneE9" fromLane="1" toLane="1"/>
    <connection from="-gneE19" to="-gneE9" fromLane="2" toLane="2"/>
    <connection from="-gneE19" to="gneE11" fromLane="2" toLane="2"/>

    <connection from="-gneE9" to="gneE9" fromLane="0" toLane="2"/>
    <connection from="-gneE9" to="gneE9" fromLane="1" toLane="1"/>
    <connection from="-gneE9" to="gneE9" fromLane="2" toLane="0"/>

    <connection from="gneE11" to="-gneE11" fromLane="0" toLane="2"/>
    <connection from="gneE11" to="-gneE11" fromLane="1" toLane="1"/>
    <connection from="gneE11" to="-gneE11" fromLane="2" toLane="0"/>

    <connection from="gneE12" to="-gneE12" fromLane="0" toLane="2"/>
    <connection from="gneE12" to="-gneE12" fromLane="1" toLane="1"/>
    <connection from="gneE12" to="-gneE12" fromLane="2" toLane="0"/>

    <connection from="gneE19" to="-gneE19" fromLane="0" toLane="2"/>
    <connection from="gneE19" to="-gneE19" fromLane="1" toLane="1"/>
    <connection from="gneE19" to="-gneE19" fromLane="2" toLane="0"/>

    <connection from="gneE9" to="gneE11" fromLane="0" toLane="0"/>
    <connection from="gneE9" to="gneE19" fromLane="0" toLane="0"/>
    <connection from="gneE9" to="gneE19" fromLane="1" toLane="1"/>
    <connection from="gneE9" to="gneE19" fromLane="2" toLane="2"/>
    <connection from="gneE9" to="gneE12" fromLane="2" toLane="2"/>

</connections>
