<?xml version="1.0" encoding="UTF-8"?>

<!-- generated on 2023-08-10 13:32:56 by Eclipse SUMO netedit Version 1.15.0
-->

<routes xmlns:xsi="http://www.w3.org/2001/XMLSchema-instance" xsi:noNamespaceSchemaLocation="http://sumo.dlr.de/xsd/routes_file.xsd">
    <!-- Routes -->
    <route id="r_0" edges="gneE9 gneE19 -gneE19 -gneE9 gneE9 gneE19 -gneE19 -gneE9 gneE9 gneE19 -gneE19 -gneE9 gneE9 gneE19 -gneE19 -gneE9 gneE9 gneE19 -gneE19 -gneE9"/>
    <route id="r_1" edges="-gneE11 gneE12 -gneE12 gneE11 -gneE11 gneE12 -gneE12 gneE11 -gneE11 gneE12 -gneE12 gneE11 -gneE11 gneE12 -gneE12 gneE11 -gneE11 gneE12 -gneE12 gneE11"/>
    <route id="r_2" edges="-gneE12 gneE11 -gneE11 gneE12 -gneE12 gneE11 -gneE11 gneE12 -gneE12 gneE11 -gneE11 gneE12 -gneE12 gneE11 -gneE11 gneE12 -gneE12 gneE11 -gneE11 gneE12"/>
    <route id="r_3" edges="-gneE19 -gneE9 gneE9 gneE19 -gneE19 -gneE9 gneE9 gneE19 -gneE19 -gneE9 gneE9 gneE19 -gneE19 -gneE9 gneE9 gneE19 -gneE19 -gneE9 gneE9 gneE19"/>
    <!-- Vehicles, persons and containers (sorted by depart) -->

    <vehicle id="100" depart="0.00" departLane="random" departSpeed="50.00" route="r_0"/>
    <vehicle id="101" depart="0.00" departLane="random" departSpeed="50.00" route="r_0"/>
    <vehicle id="102" depart="0.00" departLane="random" departSpeed="50.00" route="r_0"/>
    <vehicle id="103" depart="0.00" departLane="random" departSpeed="50.00" route="r_0"/>
    <vehicle id="104" depart="0.00" departLane="random" departSpeed="50.00" route="r_0"/>
    <vehicle id="105" depart="0.00" departLane="random" departSpeed="50.00" route="r_0"/>
    <vehicle id="106" depart="0.00" departLane="random" departSpeed="50.00" route="r_0"/>
    <vehicle id="107" depart="0.00" departLane="random" departSpeed="50.00" route="r_0"/>
    <vehicle id="108" depart="0.00" departLane="random" departSpeed="50.00" route="r_0"/>
    <vehicle id="109" depart="0.00" departLane="random" departSpeed="50.00" departEdge="0" arrivalSpeed="70.00" route="r_0"/>
    <vehicle id="110" depart="0.00" departLane="random" departSpeed="50.00" route="r_0"/>
    <vehicle id="111" depart="0.00" departLane="random" departSpeed="50.00" route="r_0"/>
    <vehicle id="112" depart="0.00" departLane="random" departSpeed="50.00" route="r_0"/>
    <vehicle id="113" depart="0.00" departLane="random" departSpeed="50.00" route="r_0"/>
    <vehicle id="114" depart="0.00" departLane="random" departSpeed="50.00" route="r_0"/>
    <vehicle id="115" depart="0.00" departLane="random" departSpeed="50.00" route="r_0"/>
    <vehicle id="116" depart="0.00" departLane="random" departSpeed="50.00" route="r_0"/>
    <vehicle id="117" depart="0.00" departLane="random" departSpeed="50.00" route="r_0"/>
    <vehicle id="118" depart="0.00" departLane="random" departSpeed="50.00" route="r_0"/>
    <vehicle id="119" depart="0.00" departLane="random" departSpeed="50.00" route="r_0"/>
    <vehicle id="120" depart="0.00" departLane="random" departSpeed="50.00" route="r_0"/>
    <vehicle id="121" depart="0.00" departLane="random" departSpeed="50.00" route="r_0"/>
    <vehicle id="122" depart="0.00" departLane="random" departSpeed="50.00" route="r_0"/>
    <vehicle id="123" depart="0.00" departLane="random" departSpeed="50.00" route="r_0"/>
    <vehicle id="124" depart="0.00" departLane="random" departSpeed="50.00" route="r_0"/>
    <vehicle id="125" depart="0.00" departLane="random" departSpeed="50.00" route="r_1"/>
    <vehicle id="126" depart="0.00" departLane="random" departSpeed="50.00" route="r_1"/>
    <vehicle id="127" depart="0.00" departLane="random" departSpeed="50.00" route="r_1"/>
    <vehicle id="128" depart="0.00" departLane="random" departSpeed="50.00" route="r_1"/>
    <vehicle id="129" depart="0.00" departLane="random" departSpeed="50.00" route="r_1"/>
    <vehicle id="130" depart="0.00" departLane="random" departSpeed="50.00" route="r_1"/>
    <vehicle id="131" depart="0.00" departLane="random" departSpeed="50.00" route="r_1"/>
    <vehicle id="132" depart="0.00" departLane="random" departSpeed="50.00" route="r_1"/>
    <vehicle id="133" depart="0.00" departLane="random" departSpeed="50.00" route="r_1"/>
    <vehicle id="134" depart="0.00" departLane="random" departSpeed="50.00" route="r_1"/>
    <vehicle id="135" depart="0.00" departLane="random" departSpeed="50.00" route="r_1"/>
    <vehicle id="136" depart="0.00" departLane="random" departSpeed="50.00" route="r_1"/>
    <vehicle id="137" depart="0.00" departLane="random" departSpeed="50.00" route="r_1"/>
    <vehicle id="138" depart="0.00" departLane="random" departSpeed="50.00" route="r_1"/>
    <vehicle id="139" depart="0.00" departLane="random" departSpeed="50.00" route="r_1"/>
    <vehicle id="140" depart="0.00" departLane="random" departSpeed="50.00" route="r_1"/>
    <vehicle id="141" depart="0.00" departLane="random" departSpeed="50.00" route="r_1"/>
    <vehicle id="142" depart="0.00" departLane="random" departSpeed="50.00" route="r_1"/>
    <vehicle id="143" depart="0.00" departLane="random" departSpeed="50.00" route="r_1"/>
    <vehicle id="144" depart="0.00" departLane="random" departSpeed="50.00" route="r_1"/>
    <vehicle id="145" depart="0.00" departLane="random" departSpeed="50.00" route="r_1"/>
    <vehicle id="146" depart="0.00" departLane="random" departSpeed="50.00" route="r_1"/>
    <vehicle id="147" depart="0.00" departLane="random" departSpeed="50.00" route="r_1"/>
    <vehicle id="148" depart="0.00" departLane="random" departSpeed="50.00" route="r_1"/>
    <vehicle id="149" depart="0.00" departLane="random" departSpeed="50.00" route="r_1"/>
    <vehicle id="150" depart="0.00" departLane="random" departSpeed="50.00" route="r_2"/>
    <vehicle id="151" depart="0.00" departLane="random" departSpeed="50.00" route="r_2"/>
    <vehicle id="152" depart="0.00" departLane="random" departSpeed="50.00" route="r_2"/>
    <vehicle id="153" depart="0.00" departLane="random" departSpeed="50.00" route="r_2"/>
    <vehicle id="154" depart="0.00" departLane="random" departSpeed="50.00" route="r_2"/>
    <vehicle id="155" depart="0.00" departLane="random" departSpeed="50.00" route="r_2"/>
    <vehicle id="156" depart="0.00" departLane="random" departSpeed="50.00" route="r_2"/>
    <vehicle id="157" depart="0.00" departLane="random" departSpeed="50.00" route="r_2"/>
    <vehicle id="158" depart="0.00" departLane="random" departSpeed="50.00" route="r_2"/>
    <vehicle id="159" depart="0.00" departLane="random" departSpeed="50.00" route="r_2"/>
    <vehicle id="160" depart="0.00" departLane="random" departSpeed="50.00" route="r_2"/>
    <vehicle id="161" depart="0.00" departLane="random" departSpeed="50.00" route="r_2"/>
    <vehicle id="162" depart="0.00" departLane="random" departSpeed="50.00" route="r_2"/>
    <vehicle id="163" depart="0.00" departLane="random" departSpeed="50.00" route="r_2"/>
    <vehicle id="164" depart="0.00" departLane="random" departSpeed="50.00" route="r_2"/>
    <vehicle id="165" depart="0.00" departLane="random" departSpeed="50.00" route="r_2"/>
    <vehicle id="166" depart="0.00" departLane="random" departSpeed="50.00" route="r_2"/>
    <vehicle id="167" depart="0.00" departLane="random" departSpeed="50.00" route="r_2"/>
    <vehicle id="168" depart="0.00" departLane="random" departSpeed="50.00" route="r_2"/>
    <vehicle id="169" depart="0.00" departLane="random" departSpeed="50.00" route="r_2"/>
    <vehicle id="170" depart="0.00" departLane="random" departSpeed="50.00" route="r_2"/>
    <vehicle id="171" depart="0.00" departLane="random" departSpeed="50.00" route="r_2"/>
    <vehicle id="172" depart="0.00" departLane="random" departSpeed="50.00" route="r_2"/>
    <vehicle id="173" depart="0.00" departLane="random" departSpeed="50.00" route="r_2"/>
    <vehicle id="174" depart="0.00" departLane="random" departSpeed="50.00" route="r_2"/>
    <vehicle id="175" depart="0.00" departLane="random" departSpeed="50.00" route="r_3"/>
    <vehicle id="176" depart="0.00" departLane="random" departSpeed="50.00" route="r_3"/>
    <vehicle id="177" depart="0.00" departLane="random" departSpeed="50.00" route="r_3"/>
    <vehicle id="178" depart="0.00" departLane="random" departSpeed="50.00" route="r_3"/>
    <vehicle id="179" depart="0.00" departLane="random" departSpeed="50.00" route="r_3"/>
    <vehicle id="180" depart="0.00" departLane="random" departSpeed="50.00" route="r_3"/>
    <vehicle id="181" depart="0.00" departLane="random" departSpeed="50.00" route="r_3"/>
    <vehicle id="182" depart="0.00" departLane="random" departSpeed="50.00" route="r_3"/>
    <vehicle id="183" depart="0.00" departLane="random" departSpeed="50.00" route="r_3"/>
    <vehicle id="184" depart="0.00" departLane="random" departSpeed="50.00" route="r_3"/>
    <vehicle id="185" depart="0.00" departLane="random" departSpeed="50.00" route="r_3"/>
    <vehicle id="186" depart="0.00" departLane="random" departSpeed="50.00" route="r_3"/>
    <vehicle id="187" depart="0.00" departLane="random" departSpeed="50.00" route="r_3"/>
    <vehicle id="188" depart="0.00" departLane="random" departSpeed="50.00" route="r_3"/>
    <vehicle id="189" depart="0.00" departLane="random" departSpeed="50.00" route="r_3"/>
    <vehicle id="190" depart="0.00" departLane="random" departSpeed="50.00" route="r_3"/>
    <vehicle id="191" depart="0.00" departLane="random" departSpeed="50.00" route="r_3"/>
    <vehicle id="192" depart="0.00" departLane="random" departSpeed="50.00" route="r_3"/>
    <vehicle id="193" depart="0.00" departLane="random" departSpeed="50.00" route="r_3"/>
    <vehicle id="194" depart="0.00" departLane="random" departSpeed="50.00" route="r_3"/>
    <vehicle id="195" depart="0.00" departLane="random" departSpeed="50.00" route="r_3"/>
    <vehicle id="196" depart="0.00" departLane="random" departSpeed="50.00" route="r_3"/>
    <vehicle id="197" depart="0.00" departLane="random" departSpeed="50.00" route="r_3"/>
    <vehicle id="198" depart="0.00" departLane="random" departSpeed="50.00" route="r_3"/>
    <vehicle id="199" depart="0.00" departLane="random" departSpeed="50.00" route="r_3"/>
</routes>
